k23/sourcebus_11000.118_744/Lines.dss
New Line.L48346_37640_37641 Units=km Length=0.045 bus1=37641.1.2.3 bus2=37640.1.2.3 switch=n enabled=y phases=3 Linecode=3P_OH_Code3
New Line.L48347_37641_37643 Units=km Length=0.042 bus1=37643.1.2.3 bus2=37641.1.2.3 switch=n enabled=y phases=3 Linecode=3P_OH_Code3
New Line.L48348_37643_37642 Units=km Length=0.024 bus1=37642.1.2.3 bus2=37643.1.2.3 switch=n enabled=y phases=3 Linecode=3P_OH_Code3
New Line.L48349_37643_37644 Units=km Length=0.039 bus1=37644.1.2.3 bus2=37643.1.2.3 switch=n enabled=y phases=3 Linecode=3P_OH_Code0
New Line.L48350_37644_37645 Units=km Length=0.042 bus1=37645.1.2.3 bus2=37644.1.2.3 switch=n enabled=y phases=3 Linecode=3P_OH_Code0
New Line.L48351_37645_37650 Units=km Length=0.08700000000000001 bus1=37650.1.2.3 bus2=37645.1.2.3 switch=n enabled=y phases=3 Linecode=3P_OH_Code0
New Line.L48352_37646_37647 Units=km Length=0.024 bus1=37647.1.2.3 bus2=37646.1.2.3 switch=n enabled=y phases=3 Linecode=3P_OH_Code2
New Line.L48353_37647_37649 Units=km Length=0.039 bus1=37649.1.2.3 bus2=37647.1.2.3 switch=n enabled=y phases=3 Linecode=3P_OH_Code1
New Line.L48354_37648_37649 Units=km Length=0.027 bus1=37649.1.2.3 bus2=37648.1.2.3 switch=n enabled=y phases=3 Linecode=3P_Code4
New Line.L48355_37649_37650 Units=km Length=0.03 bus1=37650.1.2.3 bus2=37649.1.2.3 switch=n enabled=y phases=3 Linecode=3P_OH_Code1
New Line.L48356_37650_37652 Units=km Length=0.033 bus1=37652.1.2.3 bus2=37650.1.2.3 switch=n enabled=y phases=3 Linecode=3P_OH_Code1
New Line.L48357_37651_37652 Units=km Length=0.022 bus1=37652.1.2.3 bus2=37651.1.2.3 switch=n enabled=y phases=3 Linecode=3P_OH_Code2
New Line.L48358_37652_37654 Units=km Length=0.037 bus1=37654.1.2.3 bus2=37652.1.2.3 switch=n enabled=y phases=3 Linecode=3P_OH_Code1
New Line.L48359_37653_37654 Units=km Length=0.024 bus1=37654.1.2.3 bus2=37653.1.2.3 switch=n enabled=y phases=3 Linecode=3P_OH_Code2
New Line.L48360_37654_37659 Units=km Length=0.034 bus1=37659.1.2.3 bus2=37654.1.2.3 switch=n enabled=y phases=3 Linecode=3P_OH_Code1
New Line.L48361_37655_37657 Units=km Length=0.032 bus1=37657.1.2.3 bus2=37655.1.2.3 switch=n enabled=y phases=3 Linecode=3P_Code4
New Line.L48362_37656_37658 Units=km Length=0.031 bus1=37658.1.2.3 bus2=37656.1.2.3 switch=n enabled=y phases=3 Linecode=3P_OH_Code2
New Line.L48363_37658_37657 Units=km Length=0.037 bus1=37657.1.2.3 bus2=37658.1.2.3 switch=n enabled=y phases=3 Linecode=3P_OH_Code1
New Line.L48364_37659_37658 Units=km Length=0.052000000000000005 bus1=37658.1.2.3 bus2=37659.1.2.3 switch=n enabled=y phases=3 Linecode=3P_OH_Code1
New Line.L48365_37660_37659 Units=km Length=0.038 bus1=37659.1.2.3 bus2=37660.1.2.3 switch=n enabled=y phases=3 Linecode=3P_OH_Code0
New Line.L48366_37670_37660 Units=km Length=0.034 bus1=37660.1.2.3 bus2=37670.1.2.3 switch=n enabled=y phases=3 Linecode=3P_OH_Code0
New Line.L48367_37661_37662 Units=km Length=0.078 bus1=37662.1.2.3 bus2=37661.1.2.3 switch=n enabled=y phases=3 Linecode=3P_OH_Code0
New Line.L48368_37663_37662 Units=km Length=0.042 bus1=37662.1.2.3 bus2=37663.1.2.3 switch=n enabled=y phases=3 Linecode=3P_OH_Code0
New Line.L48369_37668_37663 Units=km Length=0.032 bus1=37663.1.2.3 bus2=37668.1.2.3 switch=n enabled=y phases=3 Linecode=3P_OH_Code0
New Line.L48370_37664_37666 Units=km Length=0.027 bus1=37666.1.2.3 bus2=37664.1.2.3 switch=n enabled=y phases=3 Linecode=3P_OH_Code0
New Line.L48371_37665_37664 Units=km Length=0.025 bus1=37664.1.2.3 bus2=37665.1.2.3 switch=n enabled=y phases=3 Linecode=3P_OH_Code0
New Line.L48372_37666_37669 Units=km Length=0.035 bus1=37669.1.2.3 bus2=37666.1.2.3 switch=n enabled=y phases=3 Linecode=3P_OH_Code0
New Line.L48373_37669_37667 Units=km Length=0.047 bus1=37667.1.2.3 bus2=37669.1.2.3 switch=n enabled=y phases=3 Linecode=3P_OH_Code0
New Line.L48374_37667_37668 Units=km Length=0.044 bus1=37668.1.2.3 bus2=37667.1.2.3 switch=n enabled=y phases=3 Linecode=3P_OH_Code0
New Line.L48375_37668_37670 Units=km Length=0.023 bus1=37670.1.2.3 bus2=37668.1.2.3 switch=n enabled=y phases=3 Linecode=3P_OH_Code0
